-------------------------------------------------------
          Amber 22 PMEMD                              2022
          -------------------------------------------------------

  [-O]verwriting output

File Assignments:

 Here is the input file:

Constant pressure constant temperature production run
 &cntrl
  nstlim=500000, dt=0.002, ntx=5, irest=1,
  ntpr=500, ntwr=5000, ntwx=5000,
  temp0=310.0, ntt=1, tautp=2.0,
  ntb=2, ntp=1,
  ntc=2, ntf=2,
  nrespa=1,
&end

Note: ig = -1. Setting random seed to   613603 based on wallclock time in
      microseconds.

--------------------------------------------------------------------------------
   1.  RESOURCE   USE:
--------------------------------------------------------------------------------

 getting box info from netcdf restart file
 NATOM  =   66567 NTYPES =      16 NBONH =   59439 MBONA  =    7272
 NTHETH =   16110 MTHETA =    9810 NPHIH =   32178 MPHIA  =   30870
 NHPARM =       0 NPARM  =       0 NNB   =  148114 NRES   =   18373
 NBONA  =    7272 NTHETA =    9810 NPHIA =   30870 NUMBND =      67
 NUMANG =     152 NPTRA  =     192 NATYP =      36 NPHB   =       0
 IFBOX  =       2 NMXRS  =      24 IFCAP =       0 NEXTRA =       0
 NCOPY  =       0

     BOX TYPE: TRUNCATED OCTAHEDRON

--------------------------------------------------------------------------------
   2.  CONTROL  DATA  FOR  THE  RUN
--------------------------------------------------------------------------------

default_name

General flags:
     imin    =       0, nmropt  =       0

Nature and format of input:
     ntx     =       5, irest   =       1, ntrx    =       1

Nature and format of output:
     ntxo    =       2, ntpr    =     500, ntrx    =       1, ntwr    =    5000
     iwrap   =       0, ntwx    =    5000, ntwv    =       0, ntwe    =       0
     ioutfm  =       1, ntwprt  =       0, idecomp =       0, rbornstat=      0

Potential function:
     ntf     =       2, ntb     =       2, igb     =       0, nsnb    =      25
     ipol    =       0, gbsa    =       0, iesp    =       0
     dielc   =   1.00000, cut     =   8.00000, intdiel =   1.00000

Frozen or restrained atoms:
     ibelly  =       0, ntr     =       0

Molecular dynamics:
     nstlim  =    500000, nscm    =      1000, nrespa  =         1
     t       =   0.00000, dt      =   0.00200, vlimit  =  -1.00000

Berendsen (weak-coupling) temperature regulation:
     temp0   = 310.00000, tempi   =   0.00000, tautp   =   2.00000

Pressure regulation:
     ntp     =       1
     pres0   =   1.00000, comp    =  44.60000, taup    =   1.00000

SHAKE:
     ntc     =       2, jfastw  =       0
     tol     =   0.00001

Ewald parameters:
     verbose =       0, ew_type =       0, nbflag  =       1, use_pme =       1
     vdwmeth =       1, eedmeth =       1, netfrc  =       1
     Box X =   94.877   Box Y =   94.877   Box Z =   94.877
     Alpha =  109.471   Beta  =  109.471   Gamma =  109.471
     NFFT1 =   96       NFFT2 =   96       NFFT3 =   96
     Cutoff=    8.000   Tol   =0.100E-04
     Ewald Coefficient =  0.34864
     Interpolation order =    4

--------------------------------------------------------------------------------
   3.  ATOMIC COORDINATES AND VELOCITIES
--------------------------------------------------------------------------------

default_name
 begin time read from input coords =199400.000 ps

 Number of triangulated 3-point waters found:    17461

     Sum of charges from parm topology file =  -0.00000044
     Forcing neutrality...

--------------------------------------------------------------------------------
   4.  RESULTS
 NSTEP =      500   TIME(PS) =  199401.000  TEMP(K) =   310.72  PRESS =    65.1
 Etot   =   -147165.2452  EKtot   =     43302.6680  EPtot      =   -190467.9131
 BOND   =      2752.8574  ANGLE   =      7406.3183  DIHED      =     11021.7759
 1-4 NB =      3279.6369  1-4 EEL =     38121.5514  VDWAALS    =     15405.7265
 EELEC  =   -268455.7796  EHBOND  =         0.0000  RESTRAINT  =         0.0000
 EKCMT  =     16418.3283  VIRIAL  =     15493.4667  VOLUME     =    657611.5186
                                                    Density    =         1.0504
 ------------------------------------------------------------------------------

      A V E R A G E S   O V E R    1000 S T E P S

 NSTEP =   500000   TIME(PS) =  200400.000  TEMP(K) =   309.88  PRESS =     0.2
 Etot   =   -147128.4369  EKtot   =     43185.6551  EPtot      =   -190314.0920
 BOND   =      2753.8757  ANGLE   =      7409.5973  DIHED      =     11007.3792
 1-4 NB =      3279.9798  1-4 EEL =     38048.5175  VDWAALS    =     15366.5026
 EELEC  =   -268179.9440  EHBOND  =         0.0000  RESTRAINT  =         0.0000
 EKCMT  =     16311.0049  VIRIAL  =     16307.5870  VOLUME     =    658322.9752
                                                    Density    =         1.0492
 ------------------------------------------------------------------------------

      R M S  F L U C T U A T I O N S

 NSTEP =   500000   TIME(PS) =  200400.000  TEMP(K) =     0.89  PRESS =   112.5
 Etot   =        61.8876  EKtot   =       124.2531  EPtot      =       140.9179
 BOND   =        43.3746  ANGLE   =        64.4890  DIHED      =        37.9284
 1-4 NB =        23.2725  1-4 EEL =        68.4963  VDWAALS    =       196.1255
 EELEC  =       275.4902  EHBOND  =         0.0000  RESTRAINT  =         0.0000
 EKCMT  =        92.7497  VIRIAL  =      1603.3022  VOLUME     =       631.0531
                                                    Density    =         0.0010
 ------------------------------------------------------------------------------
